      10
 i =      154, E =       -67.6775926039
  O         0.2798639792       -0.2075030919        0.3073062274
  C         1.3860504071        0.0395447000       -0.4669621311
  O         1.4666746893       -0.8487935710       -1.5300783638
  C         0.3098263323       -1.7454209684       -1.5003663645
  C        -0.3080289132       -1.5003229881       -0.0940157011
  O         2.2003190813        0.9213822155       -0.2442190727
  H        -1.4008318920       -1.4122038413       -0.0938160400
  H        -0.3944159344       -1.4653874201       -2.3272010777
  H         0.6880793128       -2.7692692842       -1.6452153084
  H         0.0266567210       -2.2700175718        0.6480897056
