      40
 i =      129, E =      -270.6239387177
  O         0.1769628217       -0.1316650068       -0.1100213707
  C         0.9885036102        0.9735079853       -0.1010060120
  O         1.9067211973        0.8995758961       -1.1220170681
  C         1.9000611931       -0.4903226504       -1.6025481803
  C         1.0804987600       -1.1728587044       -0.5603949322
  O         0.9264231426        1.8656981752        0.7242742483
  H         0.5070185531       -2.0529359749       -0.8809307728
  H         1.4315455964       -0.5991150689       -2.6288319456
  H         2.9467308815       -0.8293083654       -1.6607804547
  H         1.7217508762       -1.4046328916        0.3356055489
  O         6.8560795514        0.2373908314        0.6783776085
  C         6.1784405937        0.8570437520       -0.3123941900
  O         5.0606177096        0.1401423867       -0.6705166108
  C         5.4402605080       -1.2382855864       -0.4006877857
  C         6.3496084330       -1.1377449596        0.7710873826
  O         6.5132663825        1.8942323309       -0.8460437303
  H         5.7899834926       -1.2540482028        1.7549637410
  H         4.5567374749       -1.8933000947       -0.3063354691
  H         6.0404882323       -1.5603748857       -1.3003355952
  H         7.1978042312       -1.8420948388        0.7648925376
  O         0.1771278596        5.4181820357       -0.1100675538
  C         0.9885959468        6.5235129115       -0.1010050829
  O         1.9068125862        6.4494689470       -1.1221280683
  C         1.9001760068        5.0595656724       -1.6026791292
  C         1.0806378033        4.3769959232       -0.5605139577
  O         0.9264614154        7.4154604372        0.7240800801
  H         0.5071461978        3.4969494394       -0.8810660354
  H         1.4316315915        4.9507670233       -2.6289348565
  H         2.9468373108        4.7205906152       -1.6609201061
  H         1.7219054850        4.1451914931        0.3354635455
  O         6.8560977595        5.7874066572        0.6783546829
  C         6.1783431862        6.4066589434       -0.3122144317
  O         5.0606302744        5.6901594879       -0.6705202206
  C         5.4402793890        4.3117340505       -0.4006866727
  C         6.3496086678        4.4122681728        0.7710769475
  O         6.5133683009        7.4445643585       -0.8462052113
  H         5.7899872024        4.2959615982        1.7549657733
  H         4.5567329122        3.6566993375       -0.3063296271
  H         6.0404855979        3.9896236656       -1.3003348868
  H         7.1978046689        3.7078896996        0.7648949882
