      80
 i =      397, E =      -541.1832228610
  O         0.3743186958       -0.3908620171       -0.0519301893
  C         0.8126397823        0.9038246421       -0.0604402953
  O         1.8401840665        1.0687923267       -0.9567773008
  C         2.1545764580       -0.2242355539       -1.5568942407
  C         0.9457680323       -1.0985861779       -1.1987789145
  O         0.3919740426        1.7927198316        0.6566490158
  H         0.1892242176       -1.1341440151       -2.0058603581
  H         2.2881828024       -0.0802833101       -2.6426388941
  H         3.1017406495       -0.5749858904       -1.1111312268
  H         1.2086154216       -2.1178696078       -0.8719997748
  O         7.1184865794        0.3297830696        0.4876064635
  C         6.2174838384        0.8197808925       -0.3883625985
  O         5.1657196156       -0.0532903844       -0.5626824604
  C         5.2815040975       -1.1112525606        0.4497576412
  C         6.7656191966       -1.0493664596        0.8279040673
  O         6.3081733813        1.8931925600       -0.9609235584
  H         6.9468851801       -1.2066179690        1.9059333764
  H         4.6230248265       -0.8450315611        1.3010167685
  H         4.9901718393       -2.0695650256       -0.0126402636
  H         7.3985821379       -1.7383029432        0.2349368630
  O         0.3743237917        5.1591297125       -0.0519485245
  C         0.8125433758        6.4540671485       -0.0602873216
  O         1.8401809121        6.6187958802       -0.9567762284
  C         2.1546138733        5.3257455458       -1.5568598435
  C         0.9458407946        4.4513235302       -1.1987252744
  O         0.3920461894        7.3425177111        0.6564806589
  H         0.1893250223        4.4156761151       -2.0058324260
  H         2.2882099881        5.4696689905       -2.6425968082
  H         3.1017792907        4.9750586022       -1.1111055695
  H         1.2087539067        3.4321246484       -0.8718227345
  O         7.1185078235        5.8795838433        0.4876036426
  C         6.2175113358        6.3698645726       -0.3884413360
  O         5.1657232949        5.4965928423       -0.5626406171
  C         5.2814152414        4.4386600099        0.4498530681
  C         6.7655347192        4.5004618400        0.8279558677
  O         6.3081710735        7.4428667106       -0.9607974721
  H         6.9468200626        4.3432287857        1.9059685791
  H         4.6229895882        4.7050166954        1.3011067670
  H         4.9899783956        3.4803635590       -0.0124953436
  H         7.3984475738        3.8114790755        0.2349927228
  O         0.3743382461       -0.3908567680        4.2390615253
  C         0.8126510564        0.9038331238        4.2305491220
  O         1.8401932142        1.0688090152        3.3342150024
  C         2.1545775456       -0.2242282331        2.7341169540
  C         0.9457844603       -1.0986148704        3.0922313637
  O         0.3919636262        1.7927051030        4.9476561875
  H         0.1892411116       -1.1341846792        2.2851383171
  H         2.2881747969       -0.0802831469        1.6483797808
  H         3.1017506604       -0.5749646981        3.1798372955
  H         1.2086659748       -2.1178810117        3.4190414780
  O         7.1184854508        0.3297818083        4.7786073712
  C         6.2174831770        0.8197781394        3.9026378756
  O         5.1657208475       -0.0532911349        3.7283165548
  C         5.2815059212       -1.1112522169        4.7407607565
  C         6.7656200223       -1.0493683400        5.1189044524
  O         6.3081749914        1.8931898156        3.3300779688
  H         6.9468872096       -1.2066193890        6.1969347158
  H         4.6230270999       -0.8450291614        5.5920199493
  H         4.9901698328       -2.0695633928        4.2783661569
  H         7.3985813486       -1.7383059787        4.5259362013
  O         0.3743097250        5.1591164127        4.2390556066
  C         0.8125379911        6.4540642066        4.2307197972
  O         1.8401769906        6.6187937006        3.3342269396
  C         2.1546071054        5.3257372479        2.7341298855
  C         0.9458294381        4.4513475734        3.0922659384
  O         0.3920522106        7.3425291512        4.9474770313
  H         0.1893152092        4.4157028884        2.2851689442
  H         2.2882162137        5.4696677990        1.6483941486
  H         3.1017765692        4.9750427295        3.1799165020
  H         1.2087205114        3.4321287469        3.4191515022
  O         7.1185101592        5.8795845967        4.7786036871
  C         6.2175129280        6.3698691938        3.9025604732
  O         5.1657213202        5.4965905002        3.7283610070
  C         5.2814138184        4.4386608024        4.7408509239
  C         6.7655361936        4.5004650218        5.1189545915
  O         6.3081692631        7.4428695798        3.3301994278
  H         6.9468207974        4.3432296689        6.1969651136
  H         4.6229899770        4.7050163278        5.5921055105
  H         4.9899794020        3.4803624830        4.2785004052
  H         7.3984487344        3.8114821609        4.5259913032
