     160
 i =      372, E =     -1082.3724674058
  O         0.3720258533       -0.4520166003       -0.0512115345
  C         0.8501561776        0.8260752891       -0.0554831504
  O         1.8655342493        0.9711278037       -0.9650220367
  C         2.1486291603       -0.3284191713       -1.5635073097
  C         0.9141501839       -1.1679021756       -1.2083765972
  O         0.4681204345        1.7192980452        0.6746223026
  H         0.1545703095       -1.1691143431       -2.0127922278
  H         2.2906368693       -0.1888073487       -2.6488048672
  H         3.0835519171       -0.7095535434       -1.1134518530
  H         1.1466915656       -2.1977699993       -0.8934033211
  O         7.1538306710        0.3256450453        0.4936407523
  C         6.2714215124        0.8434417307       -0.3855524374
  O         5.1844345298        0.0127279982       -0.5554806154
  C         5.2807154759       -1.0699628833        0.4326186201
  C         6.7635349242       -1.0420237950        0.8286436794
  O         6.4065115635        1.9068704294       -0.9648611788
  H         6.9273965500       -1.2057920230        1.9086316433
  H         4.6170677929       -0.8164452225        1.2834516481
  H         4.9827869860       -2.0156280656       -0.0533377998
  H         7.3873458522       -1.7448414525        0.2426766407
  O         0.3719819489        5.0980285647       -0.0510783364
  C         0.8502628192        6.3758872146       -0.0556345453
  O         1.8655014855        6.5211016561       -0.9649975805
  C         2.1486420099        5.2215781744       -1.5634605064
  C         0.9142498269        4.3820586271       -1.2081012408
  O         0.4681053709        7.2696032785        0.6747445295
  H         0.1546454919        4.3804720618       -2.0125201745
  H         2.2904618086        5.3611122498       -2.6488209046
  H         3.0836220487        4.8405235793       -1.1134812161
  H         1.1469020120        3.3522864783       -0.8929004454
  O         7.1539916092        5.8758107627        0.4936230420
  C         6.2714537022        6.3934105928       -0.3853917819
  O         5.1845621212        5.5628740139       -0.5553628921
  C         5.2806293240        4.4801802522        0.4325832510
  C         6.7634397684        4.5081374838        0.8285535157
  O         6.4062363338        7.4570467611       -0.9651548577
  H         6.9274651983        4.3443749173        1.9084328869
  H         4.6171149538        4.7337974319        1.2835017062
  H         4.9827611531        3.5344142640       -0.0533557289
  H         7.3873084387        3.8053581282        0.2427175049
  O         0.3720317315       -0.4520291621        4.2397801418
  C         0.8501524319        0.8260705974        4.2354945991
  O         1.8655364772        0.9711296177        3.3259822261
  C         2.1486996773       -0.3283771570        2.7274813098
  C         0.9143370428       -1.1679826476        3.0827425663
  O         0.4681416527        1.7193033370        4.9656034314
  H         0.1547573070       -1.1694851864        2.2783347378
  H         2.2905651691       -0.1887842685        1.6421504781
  H         3.0837026258       -0.7094184064        3.1774520801
  H         1.1470162969       -2.1977555707        3.3978945215
  O         7.1538018499        0.3256281958        4.7846611946
  C         6.2714480351        0.8434132007        3.9054258608
  O         5.1844280362        0.0127321922        3.7354903836
  C         5.2807189129       -1.0699133419        4.7236268622
  C         6.7635295964       -1.0420535155        5.1196679111
  O         6.4065142423        1.9068673286        3.3261644550
  H         6.9274561590       -1.2057677130        6.1996728216
  H         4.6171135297       -0.8164317300        5.5744920234
  H         4.9828096147       -2.0155981769        4.2377583774
  H         7.3873755114       -1.7448298597        4.5336674022
  O         0.3719495887        5.0980564669        4.2399342800
  C         0.8502237902        6.3758998470        4.2353800929
  O         1.8654998063        6.5210936037        3.3260066780
  C         2.1485445313        5.2215302374        2.7275637603
  C         0.9139955002        4.3821796546        3.0827416782
  O         0.4680991371        7.2696059990        4.9657792308
  H         0.1543806820        4.3809726134        2.2783433660
  H         2.2905451078        5.3610674280        1.6422213203
  H         3.0834178150        4.8403232199        3.1776853806
  H         1.1464264002        3.3522900774        3.3977175790
  O         7.1539711042        5.8757884939        4.7846088291
  C         6.2714332524        6.3934106536        3.9056061990
  O         5.1845359397        5.5628848790        3.7356076513
  C         5.2806418675        4.4801803302        4.7235456018
  C         6.7634454636        4.5081130296        5.1195491021
  O         6.4062660864        7.4570485726        3.3258599669
  H         6.9274571363        4.3443608225        6.1994535509
  H         4.6171155751        4.7337404057        5.5744560786
  H         4.9827889785        3.5344297329        4.2376095715
  H         7.3873297104        3.8053460521        4.5336897268
  O         9.7332978099       -0.4384047154       -0.0357260997
  C        10.2314722318        0.8330778968       -0.0232427045
  O        11.2416418359        0.9739579544       -0.9431248775
  C        11.4887084471       -0.3263795333       -1.5605676689
  C        10.2330943258       -1.1363614591       -1.2206545993
  O         9.8662391950        1.7133813390        0.7341902237
  H         9.4636797829       -1.0837061704       -2.0138214744
  H        11.6425421828       -0.1739071960       -2.6418621065
  H        12.4069347348       -0.7428856500       -1.1105717066
  H        10.4357215947       -2.1836163228       -0.9431656522
  O        16.4044614392        0.3280835827        0.4908191365
  C        15.5104127539        0.8229952305       -0.3897794282
  O        14.4550114668       -0.0434438354       -0.5662183878
  C        14.5643276582       -1.1068629308        0.4398013884
  C        16.0460713204       -1.0498567225        0.8272192623
  O        15.6128387740        1.8939559813       -0.9637842321
  H        16.2207593915       -1.2083498738        1.9059598216
  H        13.9035684363       -0.8451715259        1.2899589146
  H        14.2759633314       -2.0638288759       -0.0281537020
  H        16.6812646452       -1.7388251558        0.2371877701
  O         9.7332850989        5.1117997719       -0.0354989584
  C        10.2314592866        6.3831311574       -0.0232834399
  O        11.2416333073        6.5239986762       -0.9431080655
  C        11.4886558652        5.2235483127       -1.5604047010
  C        10.2330598046        4.4136385248       -1.2203319842
  O         9.8661872758        7.2637331091        0.7342395280
  H         9.4636500559        4.4661545204       -2.0134759751
  H        11.6424133955        5.3759181310       -2.6417447893
  H        12.4069676388        4.8071616801       -1.1104147885
  H        10.4356921301        3.3664387749       -0.9426622796
  O        16.4040984360        5.8777515317        0.4903524211
  C        15.5096760998        6.3723334885       -0.3899472038
  O        14.4547607458        5.5055097779       -0.5662671077
  C        14.5654626554        4.4419859583        0.4406335024
  C        16.0471758033        4.5003751862        0.8277705344
  O        15.6146393471        7.4438994887       -0.9631616117
  H        16.2205610354        4.3416355218        1.9067958995
  H        13.9035589277        4.7038051006        1.2898200035
  H        14.2766149107        3.4856939846       -0.0281690030
  H        16.6817633337        3.8105697488        0.2379897792
  O         9.7332518854       -0.4383845249        4.2552889112
  C        10.2314403244        0.8330876752        4.2677736772
  O        11.2416271543        0.9739371595        3.3478822352
  C        11.4886440277       -0.3264293328        2.7304558947
  C        10.2329365336       -1.1362976140        3.0702725627
  O         9.8662393392        1.7134051415        5.0252070312
  H         9.4635269874       -1.0834281246        2.2771216889
  H        11.6425731044       -0.1739644870        1.6491730900
  H        12.4068033059       -0.7430304841        3.1805345835
  H        10.4354239763       -2.1836093537        3.3476477676
  O        16.4046448482        0.3282716101        4.7816835754
  C        15.5101341215        0.8231076657        3.9013634457
  O        14.4550876026       -0.0437178536        3.7249341711
  C        14.5645454866       -1.1072596029        4.7311026906
  C        16.0463801680       -1.0495380078        5.1182232865
  O        15.6131492844        1.8939076441        3.3271716194
  H        16.2205757911       -1.2083691393        6.1968864507
  H        13.9034299369       -0.8451390444        5.5809392635
  H        14.2759069926       -2.0640481578        4.2626062037
  H        16.6812179521       -1.7389099185        4.5283636646
  O         9.7333768346        5.1117946161        4.2554681817
  C        10.2314773712        6.3831524471        4.2676974878
  O        11.2416595318        6.5240494406        3.3478905482
  C        11.4887028038        5.2236154154        2.7305644511
  C        10.2332253813        4.4135374383        3.0707085111
  O         9.8661702501        7.2637127946        5.0252544516
  H         9.4637778218        4.4658747648        2.2775710337
  H        11.6423450467        5.3759845316        1.6492180247
  H        12.4071067087        4.8073113885        3.1804267991
  H        10.4360216394        3.3663880014        3.3485462410
  O        16.4039102657        5.8776460819        4.7813106222
  C        15.5095722400        6.3723767519        3.9009611083
  O        14.4546698247        5.5055904837        3.7245664929
  C        14.5654464809        4.4421451050        4.7315637005
  C        16.0471547581        4.5002498093        5.1187679659
  O        15.6148015069        7.4439972051        3.3278871212
  H        16.2206051718        4.3415559644        6.1978712995
  H        13.9035745955        4.7037916376        5.5807903504
  H        14.2765664864        3.4858840623        4.2629185065
  H        16.6817346954        3.8105712275        4.5287612937
