      10
 i =       78, E =       -67.5236224168
  O         0.2636156612       -0.2652769597        0.3575835888
  C         1.4035533059        0.0796006416       -0.3209995537
  O         1.5159568123       -0.6379196411       -1.5028288809
  C         0.5023746293       -1.6941495354       -1.5234422561
  C        -0.2510152456       -1.5333330268       -0.1780531366
  O         2.2186755417        0.9054858298        0.0697647234
  H        -1.3453500261       -1.4682524425       -0.2704407520
  H        -0.1640503540       -1.5439949263       -2.4118701739
  H         1.0385725806       -2.6626816563       -1.6165761681
  H         0.0185967241       -2.3336393155        0.5612577730
