      20
 i =       92, E =      -135.0099184183
  O         0.4686070404        0.1020950402        0.1781080060
  C         1.0198041521        1.1383005233       -0.4323590773
  O         1.7704676473        0.8186677441       -1.5254166913
  C         1.8373769721       -0.6550505096       -1.5721408330
  C         1.0112806299       -1.0919883387       -0.3823612780
  O         0.8409673869        2.2508441824        0.0145785379
  H         0.1704724995       -1.7577642320       -0.6071951483
  H         1.3870361891       -1.0255348783       -2.5350600286
  H         2.9031344343       -0.9464679501       -1.5337546064
  H         1.6277013767       -1.5330618498        0.4398434232
  O         6.8728247643        0.1829355111        0.7636582739
  C         6.1225704532        0.8210425450       -0.1613749985
  O         5.3175259509        0.0111793507       -0.8550238664
  C         5.7106143150       -1.3441708177       -0.5649352246
  C         6.5792709388       -1.2459429941        0.6483004585
  O         6.1323053040        2.0246088042       -0.3780961437
  H         6.0183900885       -1.5631224620        1.5779017968
  H         4.8041615509       -1.9546456967       -0.4804010605
  H         6.3142188010       -1.6868828558       -1.4504347687
  H         7.5277734852       -1.8029003706        0.6081235238
