      80
 i =      305, E =      -539.9587358435
  O         0.4671383469       -0.4599450857       -0.0115855617
  C         0.8415344443        0.8516038044       -0.1097447351
  O         1.8465657967        1.0153597447       -1.0408983529
  C         2.1696443470       -0.2905503201       -1.5997683611
  C         1.0094948699       -1.1851687711       -1.1589692177
  O         0.3821378079        1.7558322656        0.5705829237
  H         0.2181109728       -1.2727342134       -1.9293509244
  H         2.2526233374       -0.1897828136       -2.6944048201
  H         3.1436223249       -0.5977473439       -1.1834118229
  H         1.3150547129       -2.1862090762       -0.8144797966
  O         7.1629964012        0.1930488368        0.3831570398
  C         6.2941471011        0.7982668866       -0.4535411300
  O         5.1230051598        0.0804540856       -0.5680157898
  C         5.2013750646       -1.0899302613        0.3128283642
  C         6.6744247527       -1.1230154608        0.7571762879
  O         6.5037460953        1.8475052784       -1.0483940129
  H         6.7985268673       -1.2485044456        1.8482474588
  H         4.5043455281       -0.9239214811        1.1581913199
  H         4.9173040447       -1.9899089641       -0.2666008149
  H         7.2766336466       -1.8879743836        0.2292681520
  O         0.4671382516        5.0900822786       -0.0115779759
  C         0.8416273029        6.4014271488       -0.1098833705
  O         1.8465674497        6.5653716277       -1.0409010628
  C         2.1696273695        5.2594383798       -1.5997509287
  C         1.0094686922        4.3648440593       -1.1589692808
  O         0.3820703815        7.3060100134        0.5706979653
  H         0.2180972429        4.2773052383       -1.9293764344
  H         2.2526483876        5.3602188663       -2.6943850496
  H         3.1436092734        4.9522511824       -1.1834023905
  H         1.3150341871        3.3637776438       -0.8145081444
  O         7.1629977721        5.7430354220        0.3831264159
  C         6.2941248761        6.3480862959       -0.4534366679
  O         5.1229443796        5.6305601996       -0.5679671319
  C         5.2013668432        4.4600777613        0.3128104834
  C         6.6744175785        4.4269398070        0.7571912292
  O         6.5038339507        7.3976518078       -1.0485180840
  H         6.7985659350        4.3014968899        1.8483036662
  H         4.5043822648        4.6260914843        1.1581962023
  H         4.9173200023        3.5600313784       -0.2665671740
  H         7.2766768333        3.6620287347        0.2292356407
  O         0.4671383442       -0.4599415427        4.2794147432
  C         0.8415382081        0.8516094689        4.1812526585
  O         1.8465680462        1.0153590863        3.2500993445
  C         2.1696393906       -0.2905541392        2.6912343613
  C         1.0094885134       -1.1851702253        3.1320316077
  O         0.3821424004        1.7558346496        4.8615801543
  H         0.2181082802       -1.2727262642        2.3616431738
  H         2.2526281857       -0.1897817165        1.5966013762
  H         3.1436185991       -0.5977460455        3.1075880055
  H         1.3150533447       -2.1862135564        3.4765154167
  O         7.1629954619        0.1930491871        4.6741543930
  C         6.2941422545        0.7982819197        3.8374466749
  O         5.1229990687        0.0804562673        3.7229872840
  C         5.2013789828       -1.0899304561        4.6038306474
  C         6.6744302301       -1.1230178195        5.0481791157
  O         6.5037402710        1.8474895876        3.2426099699
  H         6.7985279731       -1.2485065834        6.1392538856
  H         4.5043488378       -0.9239194665        5.4491879131
  H         4.9173019204       -1.9899061020        4.0244047204
  H         7.2766343601       -1.8879770530        4.5202622722
  O         0.4671381163        5.0900833174        4.2794219273
  C         0.8416277534        6.4014295350        4.1811162068
  O         1.8465681298        6.5653716651        3.2500981020
  C         2.1696261813        5.2594377139        2.6912490707
  C         1.0094691122        4.3648420663        3.1320327621
  O         0.3820718561        7.3060100310        4.8616967305
  H         0.2180989654        4.2773018202        2.3616244977
  H         2.2526469923        5.3602194799        1.5966157816
  H         3.1436094083        4.9522529978        3.1075947322
  H         1.3150384854        3.3637767204        3.4764948118
  O         7.1629966228        5.7430393841        4.6741279334
  C         6.2941229508        6.3480974535        3.8375553478
  O         5.1229509675        5.6305494665        3.7230276021
  C         5.2013699763        4.4600768308        4.6038124925
  C         6.6744203125        4.4269441951        5.0481894720
  O         6.5038244826        7.3976430964        3.2424906823
  H         6.7985611620        4.3014954634        6.1392988215
  H         4.5043786855        4.6260895012        5.4491943577
  H         4.9173176376        3.5600389062        4.0244288287
  H         7.2766720173        3.6620275118        4.5202370097
