     500
 i =      479, E =     -3375.1756120238
  O         4.4242383983       18.6834122904       10.4047856419
  C         5.1028072391       17.5425103116       10.0753282090
  O         4.3482203883       16.6934618975        9.3164149892
  C         3.0240834500       17.2776015286        9.1120674815
  C         3.0161134186       18.5198682092       10.0229386339
  O         6.2616775692       17.3194699996       10.4096915342
  H         2.6893647404       19.4415783330        9.5095134153
  H         2.9070647550       17.5235154230        8.0385425778
  H         2.2764760869       16.5229517030        9.4094945053
  H         2.4315939303       18.3589703754       10.9489184727
  O         1.2049424137       11.9722141716       10.5921570852
  C         2.3203271424       12.5723154808       10.0909581459
  O         2.1147717513       13.9098296609        9.8608226065
  C         0.6862031527       14.1878444324       10.0443139609
  C         0.1927337248       12.9896039141       10.8643742185
  O         3.3794681813       11.9940449294        9.8682690351
  H         0.1846988573       13.1740601556       11.9574548223
  H         0.5883236065       15.1528204836       10.5770637853
  H         0.2138060538       14.2278000476        9.0432432549
  H        -0.7907632549       12.6096484109       10.5333781883
  O        14.2868198913        3.8685582668       11.6883605682
  C        13.5010678091        4.6992032710       12.4196264810
  O        12.8946419070        4.0471858577       13.4504454296
  C        13.1625739872        2.6076495783       13.3259151498
  C        14.2864903123        2.5305791523       12.2811921142
  O        13.3558147227        5.8933086509       12.1676777573
  H        15.2829399093        2.3583252981       12.7321343282
  H        13.4806283173        2.2248380400       14.3103339701
  H        12.2268267600        2.1066341051       13.0064433078
  H        14.0899201055        1.7937767727       11.4810293196
  O         8.3858118865       13.7187404036        8.9385323846
  C         7.8876319091       13.3326649057       10.1462029884
  O         6.5309938206       13.2649355851       10.1305923348
  C         6.0404823642       13.6181778349        8.7942464801
  C         7.3192004644       13.6210249381        7.9391519228
  O         8.5696162113       13.0909213297       11.1376577990
  H         7.4628732082       12.6719605158        7.3824922638
  H         5.3117265844       12.8416528153        8.4974327321
  H         5.5538357787       14.6113956784        8.8722664601
  H         7.4059962169       14.4880995315        7.2571069507
  O         6.0765551693        2.9577183682        6.8034525583
  C         5.6044407227        4.0555805031        6.1321575346
  O         5.2520953084        5.0572388242        6.9882621439
  C         5.2548324560        4.5207361606        8.3476490455
  C         6.1651929758        3.2907053735        8.2265766814
  O         5.5306731272        4.1393452482        4.9080774358
  H         7.2322691803        3.4936484223        8.4534595984
  H         5.6511070778        5.2974101099        9.0256067626
  H         4.2096218497        4.2702453697        8.6186503416
  H         5.8060276471        2.4257462394        8.8142132524
  O         1.1029020076        5.0696087574       16.8597397693
  C         1.0305952526        5.4533510125       18.1607245698
  O         0.1901848855        6.5267775566       18.3300419705
  C        -0.5366319447        6.7322416573       17.0745388722
  C         0.3316205797        6.0052170471       16.0396193210
  O         1.6448769267        4.8968427626       19.0670499190
  H        -0.2627389433        5.4215776680       15.3135428584
  H        -1.5392827140        6.2688132450       17.1840181163
  H        -0.6421500516        7.8151419922       16.8792019657
  H         1.0370502277        6.6753086863       15.5102555685
  O         8.6539735231       14.7441421309       18.4261761286
  C         9.4566661215       15.6133450299       17.7488797122
  O         9.2930942635       16.8897464888       18.1511030618
  C         8.2904567948       16.9578338439       19.2086346647
  C         7.8715376784       15.4833188417       19.4185322558
  O        10.2304903826       15.2824369159       16.8556479773
  H         8.1356393086       15.0970035292       20.4214241232
  H         8.7665459141       17.4048088275       20.1006120986
  H         7.4646498031       17.6003937396       18.8456592619
  H         6.7990743959       15.2990859497       19.2092813308
  O        -0.0017521210       17.7829413948        8.9320287554
  C        -0.5429920710       18.4446801315       10.0053195949
  O        -1.7710851183       17.9711166449       10.3169189755
  C        -2.0875016934       16.8544604235        9.4288130334
  C        -1.0843547453       17.0322130171        8.2866922911
  O         0.0096729828       19.3575145032       10.6000133637
  H        -0.6829890442       16.0822978938        7.8895852497
  H        -1.9289370314       15.9197061736        9.9941625018
  H        -3.1457057620       16.9481009504        9.1269657671
  H        -1.4814713208       17.6513633666        7.4549626361
  O         7.7378557513       12.6220170640       16.1137039064
  C         6.6052808214       13.3292017628       16.3300702594
  O         5.9972704147       12.9887281106       17.5006244405
  C         6.7351917041       11.8815168296       18.1157891952
  C         8.0110769947       11.7700920502       17.2648853853
  O         6.1738881179       14.1885771434       15.5663521762
  H         8.8945039049       12.1835422423       17.7784798901
  H         6.9428204438       12.1611608146       19.1651465573
  H         6.0911284034       10.9834317901       18.0546018135
  H         8.2192407161       10.7516474677       16.8911687749
  O         4.4213945066        9.3959211993        4.9787870332
  C         5.3679294273       10.1688856872        5.5927662375
  O         6.4444266251       10.3964955825        4.7839842021
  C         6.1757192086        9.7853466712        3.4740038317
  C         4.9740828477        8.8702369417        3.7359180340
  O         5.2503930667       10.6038311496        6.7300894542
  H         4.1968868783        8.9344881545        2.9543890799
  H         5.9380603901       10.6092474830        2.7769644637
  H         7.0730578490        9.2312018106        3.1498252290
  H         5.2748291165        7.8144612558        3.9035816644
  O         2.3980466684       17.3267776547       17.6132419606
  C         3.0736634188       17.0500433253       18.7632816481
  O         4.2417405607       16.4026537607       18.5225300232
  C         4.4770735818       16.3257701004       17.0825712013
  C         3.2584084695       17.0411269808       16.4660288380
  O         2.6635794786       17.3179939048       19.8915818700
  H         3.5016895895       18.0137445674       15.9978800437
  H         5.4272302880       16.8573861757       16.8767068713
  H         4.5467342889       15.2600880621       16.8088962700
  H         2.6764065385       16.4022108855       15.7754279856
  O         1.8395942872        2.4920931911        4.5969971843
  C         2.2449873862        2.0125010016        5.8080671451
  O         1.6569791674        0.8132704172        6.0858732967
  C         0.9329211199        0.3498802180        4.9010862566
  C         0.7692087448        1.6357793980        4.0811400793
  O         3.0401582492        2.5777407202        6.5443273224
  H         0.9439553663        1.4814120055        3.0000017535
  H         1.5604746729       -0.4058577466        4.3858026875
  H        -0.0268178477       -0.0921616247        5.2271690496
  H        -0.1967841708        2.1419506349        4.2771872615
  O         6.6344166265        7.9257969163        8.2929108606
  C         7.1238358761        9.1467704088        8.6735256741
  O         8.1031676546        9.5816208500        7.8327491618
  C         8.4389706942        8.5173221100        6.8921478791
  C         7.2736549436        7.5249121127        7.0416460938
  O         6.7303926181        9.7618693104        9.6586257567
  H         6.5222138818        7.5941107161        6.2318834489
  H         8.5156403587        8.9532879380        5.8792992166
  H         9.4111001318        8.0830877483        7.2033293949
  H         7.6083966508        6.4753487458        7.1326973481
  O        10.6821199964       15.2996242693       13.6413523506
  C        10.6216767348       16.6139229244       14.0236438218
  O         9.3231380887       17.0364070933       14.1861868557
  C         8.4358828094       15.9452296314       13.7953251648
  C         9.3508208920       14.7139605995       13.8084286228
  O        11.6032936865       17.3228862279       14.1894935247
  H         9.3284843552       14.1851668252       14.7816254874
  H         7.6148606922       15.8711154425       14.5331383395
  H         8.0358712745       16.1717299288       12.7819486757
  H         9.1652532503       14.0226146025       12.9676568906
  O        15.9441780086        2.5625420915        6.4466124117
  C        14.6715612483        2.3543482341        6.9024591647
  O        14.3691005844        3.2202222523        7.9206591815
  C        15.5847041404        3.9286570472        8.3264652894
  C        16.5528686069        3.6817601965        7.1553186553
  O        13.9208430499        1.4959260991        6.4584468205
  H        16.6188889626        4.5359637761        6.4511359929
  H        15.3295965198        4.9940268875        8.4748952362
  H        15.9303270838        3.4976976057        9.2875876268
  H        17.5639220412        3.3811440987        7.4819381599
  O        11.0701476731        4.8939780101        7.0813650406
  C        10.5007506088        4.2027373646        8.0953365789
  O        11.0542382769        4.5113833893        9.3035482878
  C        12.1132328790        5.5056763253        9.1178120085
  C        12.1606148235        5.7210185928        7.5905860504
  O         9.5771484721        3.4097219349        7.9333923747
  H        11.9774582146        6.7678377361        7.2852225080
  H        11.8402049599        6.4213534948        9.6734897072
  H        13.0455173107        5.0862507449        9.5373692191
  H        13.0986616489        5.3595474952        7.1274447538
  O        -1.1079285659        7.8193938448       13.5337519491
  C        -0.7727479643        9.1417161493       13.6676881441
  O        -0.7341018726        9.7684024028       12.4502883500
  C        -0.9088061325        8.7801578528       11.4030299636
  C        -1.4866340382        7.5644004159       12.1437612336
  O        -0.5490347512        9.6758095684       14.7402996420
  H        -2.5920324585        7.4958847841       12.0866620449
  H        -1.5977568616        9.2067277532       10.6494125563
  H         0.0825223417        8.5756767613       10.9438160900
  H        -1.0398708446        6.6062888953       11.8215380179
  O        11.7835818233        9.6806695853       14.0932804332
  C        10.5073872939       10.0676951350       14.4229561721
  O         9.9583945322       10.8699036831       13.4648626988
  C        11.0247915811       11.2939424072       12.5582275732
  C        12.1034184640       10.2191569867       12.7615242952
  O         9.9513242172        9.7577787376       15.4706416964
  H        12.0249219170        9.3913627265       12.0285648843
  H        10.5974946856       11.3289824435       11.5432532449
  H        11.3586926412       12.3065383815       12.8678179503
  H        13.1322945650       10.6305007739       12.7923836246
  O         9.1221496880        7.1871450599        9.8662833626
  C         9.5606478725        8.0763302234       10.8188869740
  O         9.4893697884        7.5466575188       12.0720185106
  C         9.1389973596        6.1279134077       11.9528207628
  C         8.4783953002        6.0722742791       10.5744939609
  O         9.9514592323        9.2101627896       10.5872615523
  H         8.6865575747        5.1373889602       10.0242658591
  H        10.0805111949        5.5418898202       12.0063293175
  H         8.4768761349        5.8549964887       12.7940801890
  H         7.3874199591        6.2720222586       10.6102130438
  O         2.3107101610        6.5311307767        6.0806029389
  C         1.6485862199        7.7039556396        5.9750221355
  O         1.1994868174        7.9257025279        4.7014188959
  C         1.5565320578        6.7892735439        3.8603078840
  C         2.4657728584        5.9274933688        4.7622603686
  O         1.4637656935        8.4731593237        6.9123106219
  H         2.1519283832        4.8698158505        4.8278681311
  H         0.6214298818        6.2756981179        3.5656789074
  H         2.0608906305        7.1715280131        2.9529710229
  H         3.5406631451        5.9684604550        4.4936228848
  O         6.8110494098       17.2318485239        6.2639899029
  C         7.4400695440       17.5112332499        5.0894581396
  O         6.5530018200       17.6924690341        4.0617405043
  C         5.2037022075       17.7789980428        4.6142776017
  C         5.3646573401       17.2353142302        6.0476031025
  O         8.6577241966       17.5934529691        4.9709478493
  H         4.9129607084       17.9032107833        6.8052570021
  H         4.9112330682       18.8501045005        4.6028748727
  H         4.5265593587       17.1808866948        3.9754483670
  H         5.0067719474       16.1932594213        6.1535767800
  O         0.9313124797       12.7034568432       15.7612151506
  C         1.4616631135       13.8155667224       16.3289035310
  O         0.7320566963       14.9279249862       16.0311554736
  C        -0.3043177315       14.5579194373       15.0491036569
  C        -0.3860455402       13.0367475399       15.2077369852
  O         2.4718717481       13.8222532496       17.0349606303
  H        -1.1549671402       12.7163889482       15.9414099364
  H        -1.2389853379       15.0887326768       15.3038629405
  H         0.0549541714       14.8856904417       14.0535754700
  H        -0.5278355207       12.4755313811       14.2692839882
  O        11.7025079925       15.7657724692        4.5967149271
  C        11.3270276027       16.1576620916        3.3488847643
  O        11.5154477328       17.4916142345        3.1407817512
  C        11.8793625085       18.1068654066        4.4243074263
  C        12.3505228513       16.9088136589        5.2592594622
  O        10.8826604374       15.3901278562        2.4950945169
  H        13.4485118329       16.7603522295        5.2093944057
  H        12.6702461703       18.8535719246        4.2401694733
  H        10.9658585698       18.5831342628        4.8311380502
  H        12.0236794016       16.9286163416        6.3135059316
  O         5.6974718971       11.2377431875       13.9258564269
  C         6.0129128297       10.1464513259       14.6783347845
  O         6.8214039261        9.2929524447       14.0064409354
  C         6.9402622630        9.7313418811       12.6197382519
  C         6.4293075868       11.1754836936       12.6605829022
  O         5.6247144178        9.9571275049       15.8306841076
  H         7.2487038309       11.9181354546       12.7029942733
  H         7.9996737740        9.6622494921       12.3236128097
  H         6.3134289580        9.0653892944       11.9966060953
  H         5.7345975389       11.4150676399       11.8346617055
  O         8.5762866020        4.9582162900        5.0764695595
  C         8.1729114760        5.6204972438        3.9647969389
  O         8.1137850177        4.7979966444        2.8675307167
  C         8.3815570904        3.4237785578        3.3094127856
  C         9.0162769752        3.6148299214        4.6948575891
  O         7.9155830620        6.8188200846        3.9543054476
  H         8.6567838923        2.9069688389        5.4632461387
  H         7.4120110587        2.8876165812        3.3591619332
  H         9.0554279239        2.9473780318        2.5736532003
  H        10.1253659567        3.6195229738        4.6693654307
  O         5.0692662750        2.9433001197       13.0907972881
  C         5.8486909300        3.5790361484       12.1753911904
  O         7.0240149849        2.9412272987       11.9728896202
  C         7.1468817514        1.8288064582       12.9134244268
  C         5.7354621568        1.7153489598       13.5299365214
  O         5.5248711776        4.6159406181       11.6051950671
  H         5.1527491852        0.8633162662       13.1239045082
  H         7.4361352558        0.9337538098       12.3321698064
  H         7.9296098077        2.0942492983       13.6520876240
  H         5.7400893935        1.7057856022       14.6380375300
  O        16.4023291524        1.8536366258       14.9309018695
  C        16.0352428221        2.8389011752       15.7882994095
  O        16.5804493517        2.6716384774       17.0340329617
  C        17.3307562219        1.4106811507       17.0541506458
  C        17.4216413083        1.0153179207       15.5681757434
  O        15.2991001526        3.7771977220       15.4837523893
  H        18.3983017100        1.2773730008       15.1199376848
  H        18.3233463958        1.6039368553       17.5020150771
  H        16.7607304598        0.6876137361       17.6718622654
  H        17.1534526294       -0.0368136321       15.3716919618
  O         3.8698625830       15.9339151345       12.2589814471
  C         2.5986152222       15.6627823064       12.6698752069
  O         2.5000637163       14.4461107403       13.2713909416
  C         3.7886899654       13.7533595871       13.1846244863
  C         4.7563554473       14.8530732036       12.7043653376
  O         1.6451501936       16.4150088677       12.5196511644
  H         5.3857438599       15.2406982680       13.5286181719
  H         4.0460808870       13.3602764096       14.1852038992
  H         3.6799307412       12.9181428987       12.4650271347
  H         5.3815277136       14.5439573509       11.8458429557
  O        11.8873965063        7.1842419806        4.6132485804
  C        12.7470200062        8.2310400184        4.7257021417
  O        13.0804894196        8.7485753976        3.5071388189
  C        12.4785512822        7.9288579066        2.4574255127
  C        11.4921353152        7.0210466835        3.2171828679
  O        13.1725592897        8.6633165482        5.7942996241
  H        10.4381850404        7.3520342770        3.1255179545
  H        12.0000561345        8.6026421025        1.7256595715
  H        13.2972643994        7.3694501540        1.9672162132
  H        11.5910769570        5.9473082131        2.9589697179
  O         3.6747882344       14.6524570500        3.5867133072
  C         4.8691560363       14.0395038285        3.7748179830
  O         4.9777979340       12.8981803346        3.0369748056
  C         3.8349124669       12.8070778202        2.1216466363
  C         2.8771253027       13.8977282537        2.6249382648
  O         5.7351347232       14.4618705114        4.5302334221
  H         2.5709619595       14.5821465998        1.8153058063
  H         4.1939199579       13.0073217297        1.0974771641
  H         3.4142051886       11.7907334862        2.2064465778
  H         2.0019061535       13.4864304627        3.1605321359
  O         0.8363147106       12.3356068352        7.1864935472
  C         0.7184087588       13.2897145836        6.2281890963
  O         1.8277920670       13.3632470563        5.4403309527
  C         2.8241351374       12.4151686837        5.9353023605
  C         2.0029975567       11.4989104402        6.8423204123
  O        -0.2692681373       14.0065130850        6.0834154367
  H         1.6253969643       10.5986734654        6.3243979286
  H         3.2441555559       11.8799783747        5.0654066440
  H         3.6119668301       12.9880063218        6.4657700276
  H         2.5262006833       11.2143515583        7.7702055091
  O         6.1714971038        3.5072479863       18.3353052285
  C         5.7865765388        2.2497659048       17.9836803349
  O         4.7014864149        1.8365005960       18.6966621067
  C         4.1525494923        2.9561588948       19.4507521379
  C         5.2258061007        4.0551508047       19.3111701214
  O         6.3598253246        1.5637916422       17.1420712775
  H         4.8245902807        5.0068798597       18.9106265919
  H         3.1851962097        3.2397073770       18.9956115912
  H         3.9986977842        2.6315487485       20.4979557166
  H         5.7709571508        4.2542985430       20.2499377322
  O        12.6262635019       11.9014638946        0.6416185906
  C        13.8348324755       12.4402550895        0.3150874009
  O        13.9088857010       12.7966295616       -0.9993375154
  C        12.7169984776       12.3098292977       -1.6786559261
  C        11.7483344880       11.9976691215       -0.5217191344
  O        14.7463932650       12.6226583483        1.1163211280
  H        11.0313456943       12.8261800638       -0.3421974091
  H        12.3515967706       13.1145750683       -2.3477348429
  H        13.0047557862       11.4119134952       -2.2606340846
  H        11.2196775793       11.0342432819       -0.6383630494
  O         7.7403882029        6.4427786566       -1.9440526283
  C         8.7687178399        5.5514539636       -1.8814931826
  O         9.4947933467        5.7097958988       -0.7371010122
  C         9.0525915708        6.9317222665       -0.0558177190
  C         7.6904740621        7.2198672915       -0.7025472672
  O         9.0194720703        4.7108784639       -2.7452659354
  H         6.8316817428        6.8569142555       -0.1040748673
  H         8.9825776151        6.7199076044        1.0265510569
  H         9.8034888680        7.7218929772       -0.2593882772
  H         7.5305171627        8.2780138038       -0.9781431305
  O        -0.5472538398       10.5066192985        3.8647298316
  C         0.4602995307       10.3295820316        2.9589089710
  O         0.0927633761        9.4973709460        1.9416324932
  C        -1.2628528417        9.0041909415        2.1895747928
  C        -1.7622221684        9.8698026756        3.3583926443
  O         1.5591770975       10.8673215441        3.0422097346
  H        -2.4557539105       10.6686174213        3.0237519314
  H        -1.8601663828        9.1509646624        1.2694574335
  H        -1.1895384698        7.9316206219        2.4454431584
  H        -2.2108631331        9.2745063178        4.1736005987
  O        10.4934641451       -0.5556324836       10.6828922398
  C        11.6323912817       -0.1045965034       10.0811690172
  O        11.4308302784        0.1828218039        8.7620739050
  C         9.9960037981        0.0606911906        8.4770271099
  C         9.5051553218       -0.8218854108        9.6275385432
  O        12.7032368653        0.0082693603       10.6726236021
  H         8.5015119204       -0.5524844040       10.0038094300
  H         9.5702770688        1.0855097048        8.4772508378
  H         9.8730430956       -0.4091832938        7.4828054996
  H         9.5601273857       -1.9009758002        9.3796291406
  O        14.5544210538       14.5573946408        6.6468349953
  C        14.9955449016       13.7297482274        7.6396627213
  O        14.9258350688       12.4243129265        7.2720468956
  C        14.6087560845       12.3546532777        5.8531304507
  C        13.9875612957       13.7325884649        5.5859608781
  O        15.3835381537       14.0951832496        8.7429298211
  H        14.2781659718       14.1768920127        4.6169747094
  H        15.5591817463       12.1973450908        5.3022529355
  H        13.9239258022       11.4977678759        5.6970383193
  H        12.8830506845       13.7572417564        5.6882678642
  O         9.5795519400       11.4335883589        2.2123932063
  C         9.6293058917       10.1477676398        2.6561529490
  O        10.4095604610       10.0407107876        3.7758572951
  C        11.1194681711       11.3159352294        3.9462919067
  C        10.2015987291       12.2960313717        3.2225190797
  O         9.0411265644        9.2166734003        2.1187077178
  H         9.3945899458       12.6872599270        3.8781962202
  H        11.2097804012       11.5196690554        5.0277178738
  H        12.1112056357       11.2119700615        3.4576843189
  H        10.7136665233       13.1320369287        2.7132684496
  O        13.5455195187       17.7849535821       16.7628679012
  C        14.2921743672       16.8144878422       16.1552415049
  O        14.2766488576       15.6555875117       16.8670176639
  C        13.2936320586       15.7695974502       17.9391178092
  C        13.0546588380       17.2842648996       18.0444473377
  O        14.9203886875       16.9572744844       15.1154340436
  H        11.9844254381       17.5413375641       18.1435860569
  H        12.3788311719       15.2271006454       17.6322104141
  H        13.7237300368       15.3180367551       18.8523131592
  H        13.6429823984       17.7720033324       18.8480834849
  O        12.6272984587        7.6457365699       17.0355948570
  C        13.6481356582        8.5517968186       16.9102853407
  O        14.4537056753        8.2818712828       15.8476949967
  C        13.8619508766        7.1839143568       15.0778268389
  C        12.8076693333        6.5955814332       16.0301852398
  O        13.8212193617        9.4837501563       17.6865305368
  H        11.8328479961        6.4083200295       15.5431733342
  H        13.4192740348        7.6074267684       14.1570495514
  H        14.6628280232        6.4680810438       14.8196521848
  H        13.1509272041        5.6780136274       16.5506690272
  O        15.6617172010        4.2404382072        3.9469150952
  C        15.4902465721        5.5667546641        3.6904911586
  O        15.1112965807        5.7989183190        2.3974680963
  C        14.8443110674        4.5024351577        1.7612154542
  C        15.5828111450        3.5174514396        2.6704315878
  O        15.6618825786        6.4532635631        4.5176210837
  H        15.0505184566        2.5654955932        2.8400820171
  H        13.7504901742        4.3430178147        1.7680199509
  H        15.2347458899        4.5195735059        0.7269202349
  H        16.6208590689        3.3206256898        2.3296020811
  O        12.2393341929        3.4926890663       17.6879290188
  C        11.5909644283        2.9699837179       18.7713515578
  O        10.5924250100        2.1208556704       18.4208925728
  C        10.3915719112        2.2039695194       16.9689941176
  C        11.6891984132        2.8625070030       16.4780908718
  O        11.8849811950        3.2337021143       19.9352684662
  H        12.4326788702        2.1224844818       16.1277321111
  H        10.2412809256        1.1779044016       16.5844150230
  H         9.4903097982        2.8220768662       16.7864584301
  H        11.5153168648        3.6496370278       15.7218888215
  O        15.0117811150       14.7145024353       12.8871713337
  C        14.6307227577       13.4554713250       12.5285567059
  O        13.5410541675       13.4551840377       11.7076658637
  C        13.1910387365       14.8440371964       11.3895384268
  C        13.9893860238       15.6609320883       12.4212646279
  O        15.2002045252       12.4338005194       12.8985629847
  H        14.5025381156       16.5414229574       12.0014152746
  H        13.4922238750       15.0194398541       10.3390958446
  H        12.0978470157       14.9569715810       11.5018001519
  H        13.3858483644       15.9759077993       13.2927023504
  O         2.9381470542        8.1837100146       16.9334799006
  C         3.8797996894        8.5356059560       17.8454501233
  O         3.7884985730        9.8550130930       18.1627189488
  C         2.8667741706       10.5116380075       17.2352395302
  C         2.0791869700        9.3383554364       16.6461912144
  O         4.6878485311        7.7476352373       18.3360021051
  H         1.1167206134        9.1767022147       17.1694333010
  H         2.2418207070       11.2151056024       17.8117891825
  H         3.4804787740       11.0537520187       16.4907891426
  H         1.9280662060        9.3941534021       15.5538122207
  O         4.3206203429        3.7010855711       16.1132394355
  C         3.2067767166        3.4176836381       15.3820228607
  O         2.7787879993        4.4948523638       14.6563312829
  C         3.8007095314        5.5413582503       14.7363304734
  C         4.6515707391        5.1163747546       15.9402082025
  O         2.6693118729        2.3162660721       15.3810398362
  H         5.7384715254        5.1973305414       15.7587799493
  H         4.3634669871        5.5337642408       13.7799533561
  H         3.2979517985        6.5155884496       14.8729645323
  H         4.3751035287        5.6581493937       16.8666558375
  O        14.8414057742        9.6870396887        8.2879201572
  C        14.1591101252        8.5998348912        8.7282418364
  O        14.8395211173        7.4467289266        8.4740442949
  C        16.0136975332        7.7410379716        7.6454196723
  C        16.1027688957        9.2805726047        7.6775763595
  O        13.0816979082        8.6576440899        9.3065427173
  H        16.9334471466        9.6687549934        8.2998354576
  H        16.8917793231        7.2371860175        8.0951529449
  H        15.8177646451        7.3443916992        6.6303668168
  H        16.1656935021        9.7326199665        6.6701837682
  O        11.7147107532       12.9813370558        8.9544139318
  C        11.0658927949       13.3096478139        7.8087823254
  O        10.6956919516       12.1811536740        7.1018771923
  C        11.0322992748       11.0019035031        7.9193472595
  C        12.0489514891       11.5572296085        8.9180527798
  O        10.8667426680       14.4615107738        7.4525862176
  H        11.9352328604       11.1332483142        9.9279406356
  H        10.1043457957       10.6423016263        8.4030501358
  H        11.4564211425       10.2229745458        7.2560206492
  H        13.1013239047       11.4588202080        8.5879627621
  O         2.6751954699        7.1029698468       11.5031740058
  C         2.7869486547        8.1814499757       12.3438305827
  O         3.4944648852        9.2019228908       11.7821034331
  C         3.6187546987        8.9024575662       10.3438706268
  C         3.4977247798        7.3790735983       10.3141603255
  O         2.3005588249        8.2009139355       13.4659334818
  H         2.9717847165        6.9907969140        9.4209782445
  H         2.7836079498        9.4124608782        9.8229317061
  H         4.5878500383        9.2955092440        9.9882667476
  H         4.4667132974        6.8564596719       10.4557897911
  O        16.1258737113       15.9332147426        3.6748690643
  C        15.9334486437       16.8569789647        2.6883477424
  O        16.3115829599       16.3933928731        1.4666806208
  C        17.0108959943       15.1214901976        1.6375378103
  C        16.5878552167       14.6862835709        3.0487336786
  O        15.4707110867       17.9753719636        2.8635824890
  H        15.7361468801       13.9763985591        3.0128486321
  H        16.6591277429       14.4266731876        0.8520906817
  H        18.0957227604       15.3260481257        1.5337298043
  H        17.3998975455       14.2816533229        3.6786257456
  O        19.9765111870        4.0592274450       10.3111899113
  C        18.8347427958        4.6966510645        9.9171515020
  O        17.9689835345        4.8819785478       10.9580089568
  C        18.5159062439        4.2638492880       12.1626006260
  C        19.9536446718        3.8871283337       11.7610923473
  O        18.6117531683        5.0668148081        8.7683831212
  H        20.7179627122        4.5652088442       12.1741886948
  H        18.4893601698        5.0150505964       12.9741054068
  H        17.8865901801        3.3859366498       12.4057668610
  H        20.2108224051        2.8389681479       11.9949246553
